&NAMDIM
NPROMA=-24,
/
&NAMPAR0
LSTATS=.TRUE.,
LDETAILED_STATS=.TRUE.,
LSYNCSTATS=.FALSE.,
MP_TYPE=2,
MBX_SIZE=1000000,
NPROC=1,
NOUTPUT=1,
/
&NAMPAR1
LSPLIT=.TRUE.,
NFLDIN=0,
NSTRIN=1,
NSTROUT=0,
NOUTTYPE=1,

/
&NAMCT0
NFRSDI=1,
N3DINI=0,
LREFOUT=.FALSE.,
LFDBOP=.FALSE.,
NFRHIS=6,
NFRPOS=6,
NFPOS=2,
NFRDHP=1,
NFRDHFD=1,

/
&NAMARG
LECMWF=.TRUE.,
LSLAG=.TRUE.,
NCONF=1,
CNMEXP='epc8',
/
&NAMRIP
CSTOP='t25',
TSTEP=3600.000000,
/
&NAEPHY
NALBEDOSCHEME=1,
LEPHYS=.TRUE.,
LSLPHY=.TRUE.,
LERADI=.TRUE.,
LELAIV=.FALSE.,
LEO3CH=.FALSE.,

/
&NAMGEM
NHTYP=0,
/
&NAMAFN
TFP_FUA(1)%LLGP=.FALSE.,
/
&NAMDPHY
NVEXTR=0,
NCEXTR=0,
/
&NAMGRIB
NCYCLE=147,

/
&NAMGFL
YQ_NL%LGP=true,
YQ_NL%LSP=false,
YO3_NL%LGP=false,
YQ_NL%LGPINGP=true,
YR_NL%NREQIN=-1,
YS_NL%NREQIN=-1,
/
 &NAERAD
 NRPROMA=-8,
 CRTABLEDIR="/myhome",
 LAER3D=.false.,
 /
 &NAMFPC
    CFPFMT='MODEL',
    NFP3DFS=2,
    MFP3DFS=130,133,
    NRFP3S=-99,
    NFP2DF=1,
    MFP2DF=152,
    NFP3DFP=1,
    MFP3DFP=130,
    RFP3P=100000.,85000.,70000.,50000.,
    NFPPHY=0,
    MFPPHY=129,136,137,139,
 /
&NAMIO_SERV
NPROC_IO=10,
/
&NAMIO_SERV
NPROC_IO=0,
/
